<?xml version="1.0" encoding="UTF-8"?>

<!-- generated on 2025-11-04 17:57:00 by Eclipse SUMO netedit Version 1.24.0
<neteditConfiguration xmlns:xsi="http://www.w3.org/2001/XMLSchema-instance" xsi:noNamespaceSchemaLocation="http://sumo.dlr.de/xsd/neteditConfiguration.xsd">

    <input>
        <sumo-net-file value="D:\python_deeplearning_project\sumo_data\Data\sejong_noRail.net.xml"/>
    </input>

    <output>
        <output-file value="D:\python_deeplearning_project\sumo_data\Data\sejong_noRail.net.xml"/>
    </output>

    <processing>
        <geometry.min-radius.fix.railways value="false"/>
        <geometry.avoid-overlap value="false"/>
        <geometry.max-grade.fix value="false"/>
        <offset.disable-normalization value="true"/>
        <lefthand value="0"/>
    </processing>

    <junctions>
        <no-turnarounds value="true"/>
        <junctions.corner-detail value="5"/>
        <junctions.limit-turn-speed value="5.50"/>
        <rectangular-lane-cut value="0"/>
    </junctions>

    <pedestrian>
        <walkingareas value="0"/>
    </pedestrian>

</neteditConfiguration>
-->

<net version="1.20" junctionCornerDetail="5" limitTurnSpeed="5.50" avoidOverlap="0" xmlns:xsi="http://www.w3.org/2001/XMLSchema-instance" xsi:noNamespaceSchemaLocation="http://sumo.dlr.de/xsd/net_file.xsd">

    <location netOffset="-322685.41,-4155947.98" convBoundary="7216.12,1132.79,8145.24,2506.31" origBoundary="126.992118,37.535768,127.132596,37.620537" projParameter="+proj=utm +zone=52 +ellps=WGS84 +datum=WGS84 +units=m +no_defs"/>

    <type id="highway.footway" priority="1" numLanes="1" speed="2.78" allow="pedestrian" oneway="1" width="2.00"/>
    <type id="highway.residential" priority="3" numLanes="1" speed="13.89" disallow="tram rail_urban rail rail_electric rail_fast ship container cable_car subway aircraft wheelchair scooter drone" oneway="0"/>
    <type id="highway.secondary" priority="11" numLanes="1" speed="27.78" disallow="tram rail_urban rail rail_electric rail_fast ship container cable_car subway aircraft wheelchair scooter drone" oneway="0"/>

    <edge id=":1066203094_0" function="internal">
        <lane id=":1066203094_0_0" index="0" disallow="pedestrian tram rail_urban rail rail_electric rail_fast ship container cable_car subway aircraft wheelchair scooter drone" speed="6.55" length="9.08" shape="7645.13,2402.53 7643.75,2400.47 7642.04,2399.33 7639.99,2399.12 7637.62,2399.83"/>
    </edge>
    <edge id=":1066203094_1" function="internal">
        <lane id=":1066203094_1_0" index="0" disallow="pedestrian tram rail_urban rail rail_electric rail_fast ship container cable_car subway aircraft wheelchair scooter drone" speed="27.78" length="14.41" shape="7645.13,2402.53 7639.00,2389.50"/>
    </edge>
    <edge id=":1066203094_2" function="internal">
        <lane id=":1066203094_2_0" index="0" disallow="pedestrian tram rail_urban rail rail_electric rail_fast ship container cable_car subway aircraft wheelchair scooter drone" speed="7.04" length="10.84" shape="7645.13,2402.53 7643.71,2398.94 7643.26,2396.11 7643.79,2394.05 7645.29,2392.75"/>
    </edge>
    <edge id=":1066203094_3" function="internal">
        <lane id=":1066203094_3_0" index="0" disallow="tram rail_urban rail rail_electric rail_fast ship container cable_car subway aircraft wheelchair scooter drone" speed="20.84" length="9.94" shape="7646.63,2395.65 7637.62,2399.83"/>
    </edge>
    <edge id=":1066203094_4" function="internal">
        <lane id=":1066203094_4_0" index="0" disallow="pedestrian tram rail_urban rail rail_electric rail_fast ship container cable_car subway aircraft wheelchair scooter drone" speed="7.06" length="1.98" shape="7646.63,2395.65 7644.67,2395.95"/>
    </edge>
    <edge id=":1066203094_5" function="internal">
        <lane id=":1066203094_5_0" index="0" disallow="tram rail_urban rail rail_electric rail_fast ship container cable_car subway aircraft wheelchair scooter drone" speed="3.65" length="1.44" shape="7646.63,2395.65 7645.21,2395.43"/>
    </edge>
    <edge id=":1066203094_9" function="internal">
        <lane id=":1066203094_9_0" index="0" disallow="pedestrian tram rail_urban rail rail_electric rail_fast ship container cable_car subway aircraft wheelchair scooter drone" speed="7.06" length="8.86" shape="7644.67,2395.95 7642.75,2395.03 7640.86,2392.88 7639.00,2389.50"/>
    </edge>
    <edge id=":1066203094_10" function="internal">
        <lane id=":1066203094_10_0" index="0" disallow="tram rail_urban rail rail_electric rail_fast ship container cable_car subway aircraft wheelchair scooter drone" speed="3.65" length="3.23" shape="7645.21,2395.43 7644.51,2394.87 7644.54,2393.98 7645.29,2392.75"/>
    </edge>
    <edge id=":1066203094_6" function="internal">
        <lane id=":1066203094_6_0" index="0" disallow="pedestrian tram rail_urban rail rail_electric rail_fast ship container cable_car subway aircraft wheelchair scooter drone" speed="6.51" length="9.02" shape="7636.27,2396.93 7638.34,2395.58 7639.49,2393.89 7639.71,2391.87 7639.00,2389.50"/>
    </edge>
    <edge id=":1066203094_7" function="internal">
        <lane id=":1066203094_7_0" index="0" disallow="tram rail_urban rail rail_electric rail_fast ship container cable_car subway aircraft wheelchair scooter drone" speed="20.84" length="9.94" shape="7636.27,2396.93 7645.29,2392.75"/>
    </edge>
    <edge id=":1066203094_8" function="internal">
        <lane id=":1066203094_8_0" index="0" disallow="tram rail_urban rail rail_electric rail_fast ship container cable_car subway aircraft wheelchair scooter drone" speed="3.65" length="1.44" shape="7636.27,2396.93 7637.70,2397.15"/>
    </edge>
    <edge id=":1066203094_11" function="internal">
        <lane id=":1066203094_11_0" index="0" disallow="tram rail_urban rail rail_electric rail_fast ship container cable_car subway aircraft wheelchair scooter drone" speed="3.65" length="3.23" shape="7637.70,2397.15 7638.40,2397.71 7638.37,2398.60 7637.62,2399.83"/>
    </edge>
    <edge id=":3991887966_0" function="internal">
        <lane id=":3991887966_0_0" index="0" disallow="tram rail_urban rail rail_electric rail_fast ship container cable_car subway aircraft wheelchair scooter drone" speed="13.89" length="5.08" shape="7636.45,2400.37 7631.89,2402.63"/>
    </edge>
    <edge id=":3991887966_1" function="internal">
        <lane id=":3991887966_1_0" index="0" disallow="tram rail_urban rail rail_electric rail_fast ship container cable_car subway aircraft wheelchair scooter drone" speed="13.89" length="5.24" shape="7630.40,2399.79 7635.10,2397.47"/>
    </edge>
    <edge id=":4175105101_0" function="internal">
        <lane id=":4175105101_0_0" index="0" disallow="tram rail_urban rail rail_electric rail_fast ship container cable_car subway aircraft wheelchair scooter drone" speed="3.65" length="4.67" shape="7428.97,2507.72 7427.53,2507.58 7426.81,2507.06 7426.79,2506.17 7427.47,2504.90"/>
    </edge>
    <edge id=":4177516258_0" function="internal">
        <lane id=":4177516258_0_0" index="0" disallow="tram rail_urban rail rail_electric rail_fast ship container cable_car subway aircraft wheelchair scooter drone" speed="3.65" length="4.67" shape="7694.24,2366.90 7695.68,2367.04 7696.40,2367.56 7696.42,2368.46 7695.74,2369.72"/>
    </edge>
    <edge id=":7856245557_0" function="internal">
        <lane id=":7856245557_0_0" index="0" disallow="tram rail_urban rail rail_electric rail_fast ship container cable_car subway aircraft wheelchair scooter drone" speed="13.89" length="5.27" shape="7663.28,2386.89 7658.64,2389.40"/>
    </edge>
    <edge id=":7856245557_1" function="internal">
        <lane id=":7856245557_1_0" index="0" disallow="tram rail_urban rail rail_electric rail_fast ship container cable_car subway aircraft wheelchair scooter drone" speed="13.89" length="5.33" shape="7657.10,2386.59 7661.79,2384.06"/>
    </edge>
    <edge id=":8952652972_0" function="internal">
        <lane id=":8952652972_0_0" index="0" disallow="tram rail_urban rail rail_electric rail_fast ship container cable_car subway aircraft wheelchair scooter drone" speed="6.86" length="9.53" shape="7655.96,2390.87 7653.83,2392.45 7652.63,2394.31 7652.38,2396.45 7653.06,2398.87"/>
    </edge>
    <edge id=":8952652972_1" function="internal">
        <lane id=":8952652972_1_0" index="0" disallow="tram rail_urban rail rail_electric rail_fast ship container cable_car subway aircraft wheelchair scooter drone" speed="20.84" length="10.28" shape="7655.96,2390.87 7646.82,2395.57"/>
    </edge>
    <edge id=":8952652972_2" function="internal">
        <lane id=":8952652972_2_0" index="0" disallow="tram rail_urban rail rail_electric rail_fast ship container cable_car subway aircraft wheelchair scooter drone" speed="3.65" length="1.44" shape="7655.96,2390.87 7654.53,2390.75"/>
    </edge>
    <edge id=":8952652972_9" function="internal">
        <lane id=":8952652972_9_0" index="0" disallow="tram rail_urban rail rail_electric rail_fast ship container cable_car subway aircraft wheelchair scooter drone" speed="3.65" length="3.23" shape="7654.53,2390.75 7653.79,2390.24 7653.75,2389.35 7654.42,2388.07"/>
    </edge>
    <edge id=":8952652972_3" function="internal">
        <lane id=":8952652972_3_0" index="0" disallow="pedestrian tram rail_urban rail rail_electric rail_fast ship container cable_car subway aircraft wheelchair scooter drone" speed="6.37" length="9.04" shape="7647.00,2385.66 7648.37,2387.75 7650.06,2388.85 7652.08,2388.95 7654.42,2388.07"/>
    </edge>
    <edge id=":8952652972_4" function="internal">
        <lane id=":8952652972_4_0" index="0" disallow="pedestrian tram rail_urban rail rail_electric rail_fast ship container cable_car subway aircraft wheelchair scooter drone" speed="27.78" length="14.53" shape="7647.00,2385.66 7653.06,2398.87"/>
    </edge>
    <edge id=":8952652972_5" function="internal">
        <lane id=":8952652972_5_0" index="0" disallow="pedestrian tram rail_urban rail rail_electric rail_fast ship container cable_car subway aircraft wheelchair scooter drone" speed="7.09" length="10.95" shape="7647.00,2385.66 7648.40,2389.30 7648.84,2392.17 7648.31,2394.26 7646.82,2395.57"/>
    </edge>
    <edge id=":8952652972_6" function="internal">
        <lane id=":8952652972_6_0" index="0" disallow="tram rail_urban rail rail_electric rail_fast ship container cable_car subway aircraft wheelchair scooter drone" speed="20.84" length="10.06" shape="7645.47,2392.66 7654.42,2388.07"/>
    </edge>
    <edge id=":8952652972_7" function="internal">
        <lane id=":8952652972_7_0" index="0" disallow="tram rail_urban rail rail_electric rail_fast ship container cable_car subway aircraft wheelchair scooter drone" speed="7.04" length="1.99" shape="7645.47,2392.66 7647.43,2392.36"/>
    </edge>
    <edge id=":8952652972_8" function="internal">
        <lane id=":8952652972_8_0" index="0" disallow="tram rail_urban rail rail_electric rail_fast ship container cable_car subway aircraft wheelchair scooter drone" speed="3.65" length="1.44" shape="7645.47,2392.66 7646.90,2392.88"/>
    </edge>
    <edge id=":8952652972_10" function="internal">
        <lane id=":8952652972_10_0" index="0" disallow="tram rail_urban rail rail_electric rail_fast ship container cable_car subway aircraft wheelchair scooter drone" speed="7.04" length="8.87" shape="7647.43,2392.36 7649.35,2393.29 7651.23,2395.46 7653.06,2398.87"/>
    </edge>
    <edge id=":8952652972_11" function="internal">
        <lane id=":8952652972_11_0" index="0" disallow="tram rail_urban rail rail_electric rail_fast ship container cable_car subway aircraft wheelchair scooter drone" speed="3.65" length="3.23" shape="7646.90,2392.88 7647.59,2393.44 7647.57,2394.34 7646.82,2395.57"/>
    </edge>
    <edge id=":9651134455_0" function="internal">
        <lane id=":9651134455_0_0" index="0" disallow="pedestrian tram rail_urban rail rail_electric rail_fast ship container cable_car subway aircraft wheelchair scooter drone" speed="27.78" length="5.06" shape="7638.45,2388.31 7636.33,2383.71"/>
    </edge>
    <edge id=":9651134456_0" function="internal">
        <lane id=":9651134456_0_0" index="0" disallow="pedestrian tram rail_urban rail rail_electric rail_fast ship container cable_car subway aircraft wheelchair scooter drone" speed="27.78" length="5.04" shape="7644.29,2379.88 7646.43,2384.44"/>
    </edge>

    <edge id="-175320504#0" from="7856245557" to="8952652972" priority="3" type="highway.residential">
        <lane id="-175320504#0_0" index="0" disallow="tram rail_urban rail rail_electric rail_fast ship container cable_car subway aircraft wheelchair scooter drone" speed="13.89" length="3.06" shape="7658.64,2389.40 7655.96,2390.87"/>
    </edge>
    <edge id="-175320504#1" from="4177516258" to="7856245557" priority="3" type="highway.residential">
        <lane id="-175320504#1_0" index="0" disallow="tram rail_urban rail rail_electric rail_fast ship container cable_car subway aircraft wheelchair scooter drone" speed="13.89" length="36.72" shape="7695.74,2369.72 7663.28,2386.89"/>
    </edge>
    <edge id="-416819990#0" from="3991887966" to="4175105101" priority="3" type="highway.residential" shape="7633.45,2400.00 7596.30,2419.53 7568.90,2433.57 7511.19,2463.20 7501.73,2467.93 7433.50,2503.51 7428.22,2506.31">
        <lane id="-416819990#0_0" index="0" disallow="tram rail_urban rail rail_electric rail_fast ship container cable_car subway aircraft wheelchair scooter drone" speed="13.89" length="228.53" shape="7631.89,2402.63 7597.04,2420.95 7569.63,2434.99 7511.91,2464.63 7502.46,2469.35 7434.24,2504.93 7428.97,2507.72"/>
    </edge>
    <edge id="-416819990#1" from="1066203094" to="3991887966" priority="3" type="highway.residential">
        <lane id="-416819990#1_0" index="0" disallow="tram rail_urban rail rail_electric rail_fast ship container cable_car subway aircraft wheelchair scooter drone" speed="13.89" length="1.29" shape="7637.62,2399.83 7636.45,2400.37"/>
    </edge>
    <edge id="-976906316" from="8952652972" to="1066203094" priority="11" type="highway.secondary">
        <lane id="-976906316_0" index="0" disallow="tram rail_urban rail rail_electric rail_fast ship container cable_car subway aircraft wheelchair scooter drone" speed="27.78" length="0.20" shape="7646.82,2395.57 7646.63,2395.65"/>
    </edge>
    <edge id="1050204197#0" from="9651134453" to="9651134455" priority="1" type="highway.footway" spreadType="center">
        <lane id="1050204197#0_0" index="0" allow="pedestrian" speed="2.78" length="3.85" width="2.00" shape="7631.11,2389.05 7634.58,2387.37"/>
    </edge>
    <edge id="1050204197#1" from="9651134455" to="9651134456" priority="1" type="highway.footway" spreadType="center">
        <lane id="1050204197#1_0" index="0" allow="pedestrian" speed="2.78" length="2.62" width="2.00" shape="7640.20,2384.65 7642.56,2383.51"/>
    </edge>
    <edge id="1050204197#2" from="9651134456" to="9651134454" priority="1" type="highway.footway" spreadType="center">
        <lane id="1050204197#2_0" index="0" allow="pedestrian" speed="2.78" length="5.80" width="2.00" shape="7648.16,2380.81 7653.39,2378.30"/>
    </edge>
    <edge id="175320504#0" from="8952652972" to="7856245557" priority="3" type="highway.residential">
        <lane id="175320504#0_0" index="0" disallow="tram rail_urban rail rail_electric rail_fast ship container cable_car subway aircraft wheelchair scooter drone" speed="13.89" length="3.06" shape="7654.42,2388.07 7657.10,2386.59"/>
    </edge>
    <edge id="175320504#1" from="7856245557" to="4177516258" priority="3" type="highway.residential">
        <lane id="175320504#1_0" index="0" disallow="tram rail_urban rail rail_electric rail_fast ship container cable_car subway aircraft wheelchair scooter drone" speed="13.89" length="36.72" shape="7661.79,2384.06 7694.24,2366.90"/>
    </edge>
    <edge id="416819990#0" from="4175105101" to="3991887966" priority="3" type="highway.residential" shape="7428.22,2506.31 7433.50,2503.51 7501.73,2467.93 7511.19,2463.20 7568.90,2433.57 7596.30,2419.53 7633.45,2400.00">
        <lane id="416819990#0_0" index="0" disallow="tram rail_urban rail rail_electric rail_fast ship container cable_car subway aircraft wheelchair scooter drone" speed="13.89" length="228.54" shape="7427.47,2504.90 7432.76,2502.09 7501.00,2466.51 7510.47,2461.77 7568.17,2432.15 7595.56,2418.11 7630.40,2399.79"/>
    </edge>
    <edge id="416819990#1" from="3991887966" to="1066203094" priority="3" type="highway.residential">
        <lane id="416819990#1_0" index="0" disallow="tram rail_urban rail rail_electric rail_fast ship container cable_car subway aircraft wheelchair scooter drone" speed="13.89" length="1.29" shape="7635.10,2397.47 7636.27,2396.93"/>
    </edge>
    <edge id="520407909#0" from="4676683163" to="3991887966" priority="1" type="highway.footway" spreadType="center">
        <lane id="520407909#0_0" index="0" allow="pedestrian" speed="2.78" length="47.55" width="2.00" shape="7656.34,2447.00 7635.52,2404.25"/>
    </edge>
    <edge id="520407909#1" from="3991887966" to="9651134453" priority="1" type="highway.footway" spreadType="center">
        <lane id="520407909#1_0" index="0" allow="pedestrian" speed="2.78" length="3.70" width="2.00" shape="7631.46,2395.74 7629.90,2392.39"/>
    </edge>
    <edge id="520407909#2" from="9651134453" to="J6" priority="1" type="highway.footway" spreadType="center" shape="7628.85,2390.14 7587.37,2301.06 7581.52,2288.49 7573.68,2270.34">
        <lane id="520407909#2_0" index="0" allow="pedestrian" speed="2.78" length="129.39" width="2.00" shape="7627.79,2387.86 7587.37,2301.06 7581.52,2288.49 7573.68,2270.34"/>
    </edge>
    <edge id="842101756#0" from="4676683164" to="7856245557" priority="1" type="highway.footway" spreadType="center" shape="7683.24,2433.48 7664.07,2394.73 7660.22,2386.70">
        <lane id="842101756#0_0" index="0" allow="pedestrian" speed="2.78" length="47.38" width="2.00" shape="7683.24,2433.48 7664.07,2394.73 7662.28,2390.99"/>
    </edge>
    <edge id="842101756#1" from="7856245557" to="9651134454" priority="1" type="highway.footway" spreadType="center">
        <lane id="842101756#1_0" index="0" allow="pedestrian" speed="2.78" length="3.30" width="2.00" shape="7658.16,2382.43 7656.73,2379.46"/>
    </edge>
    <edge id="842101756#2" from="9651134454" to="J5" priority="1" type="highway.footway" spreadType="center" shape="7655.64,2377.21 7612.84,2288.57 7606.18,2274.77 7598.78,2258.84">
        <lane id="842101756#2_0" index="0" allow="pedestrian" speed="2.78" length="128.82" width="2.00" shape="7654.55,2374.96 7612.84,2288.57 7606.18,2274.77 7598.78,2258.84"/>
    </edge>
    <edge id="976906312#0" from="8952652973" to="9651134456" priority="11" type="highway.secondary" spreadType="center" shape="7597.45,2279.89 7603.63,2293.09 7645.36,2382.16">
        <lane id="976906312#0_0" index="0" disallow="pedestrian tram rail_urban rail rail_electric rail_fast ship container cable_car subway aircraft wheelchair scooter drone" speed="27.78" length="110.42" shape="7597.45,2279.89 7603.63,2293.09 7644.29,2379.88"/>
    </edge>
    <edge id="976906312#1" from="9651134456" to="8952652972" priority="11" type="highway.secondary" spreadType="center">
        <lane id="976906312#1_0" index="0" disallow="pedestrian tram rail_urban rail rail_electric rail_fast ship container cable_car subway aircraft wheelchair scooter drone" speed="27.78" length="1.34" shape="7646.43,2384.44 7647.00,2385.66"/>
    </edge>
    <edge id="976906314#1" from="5120772423" to="1066203094" priority="11" type="highway.secondary" spreadType="center">
        <lane id="976906314#1_0" index="0" disallow="pedestrian tram rail_urban rail rail_electric rail_fast ship container cable_car subway aircraft wheelchair scooter drone" speed="27.78" length="44.90" shape="7664.54,2443.02 7645.13,2402.53"/>
    </edge>
    <edge id="976906314#2" from="1066203094" to="9651134455" priority="11" type="highway.secondary" spreadType="center">
        <lane id="976906314#2_0" index="0" disallow="pedestrian tram rail_urban rail rail_electric rail_fast ship container cable_car subway aircraft wheelchair scooter drone" speed="27.78" length="1.31" shape="7639.00,2389.50 7638.45,2388.31"/>
    </edge>
    <edge id="976906314#3" from="9651134455" to="436832680" priority="11" type="highway.secondary" spreadType="center" shape="7637.39,2386.01 7612.26,2331.41 7604.72,2319.44 7594.87,2297.39 7589.04,2284.35">
        <lane id="976906314#3_0" index="0" disallow="pedestrian tram rail_urban rail rail_electric rail_fast ship container cable_car subway aircraft wheelchair scooter drone" speed="27.78" length="110.16" shape="7636.33,2383.71 7612.26,2331.41 7604.72,2319.44 7594.87,2297.39 7589.04,2284.35"/>
    </edge>
    <edge id="976906315#0" from="8952652972" to="9651134449" priority="11" type="highway.secondary" spreadType="center">
        <lane id="976906315#0_0" index="0" disallow="tram rail_urban rail rail_electric rail_fast ship container cable_car subway aircraft wheelchair scooter drone" speed="27.78" length="44.66" shape="7653.06,2398.87 7671.34,2439.61"/>
    </edge>
    <edge id="976906316" from="1066203094" to="8952652972" priority="11" type="highway.secondary">
        <lane id="976906316_0" index="0" disallow="tram rail_urban rail rail_electric rail_fast ship container cable_car subway aircraft wheelchair scooter drone" speed="27.78" length="0.20" shape="7645.29,2392.75 7645.47,2392.66"/>
    </edge>

    <tlLogic id="joinedS_1066203094_8952652972" type="static" programID="0" offset="0">
        <phase duration="39" state="rrrGggGGgGGgrrrGgg"/>
        <phase duration="6"  state="rrryyyyyyyyyrrryyy"/>
        <phase duration="39" state="GGGrrrrrrrrrGGGrrr"/>
        <phase duration="6"  state="yyyrrrrrrrrryyyrrr"/>
    </tlLogic>

    <junction id="1066203094" type="traffic_light" x="7642.01" y="2396.03" incLanes="976906314#1_0 -976906316_0 416819990#1_0" intLanes=":1066203094_0_0 :1066203094_1_0 :1066203094_2_0 :1066203094_3_0 :1066203094_9_0 :1066203094_10_0 :1066203094_6_0 :1066203094_7_0 :1066203094_11_0" shape="7643.69,2403.23 7646.57,2401.84 7646.01,2399.66 7646.18,2398.72 7646.65,2397.90 7647.41,2397.18 7648.47,2396.56 7645.77,2390.76 7643.56,2391.30 7642.62,2391.12 7641.78,2390.65 7641.06,2389.89 7640.45,2388.83 7637.54,2390.17 7638.07,2392.37 7637.89,2393.31 7637.42,2394.14 7636.66,2394.86 7635.60,2395.48 7638.29,2401.28 7640.51,2400.75 7641.47,2400.92 7642.31,2401.39 7643.05,2402.16">
        <request index="0" response="000001000" foes="100001000" cont="0"/>
        <request index="1" response="011011000" foes="011011000" cont="0"/>
        <request index="2" response="010011000" foes="010111000" cont="0"/>
        <request index="3" response="000000000" foes="100000111" cont="0"/>
        <request index="4" response="011000000" foes="011000110" cont="1"/>
        <request index="5" response="010000100" foes="010000100" cont="1"/>
        <request index="6" response="000000000" foes="000010010" cont="0"/>
        <request index="7" response="000000000" foes="000110110" cont="0"/>
        <request index="8" response="000001001" foes="000001001" cont="1"/>
    </junction>
    <junction id="10815444429" type="dead_end" x="8145.24" y="1132.79" incLanes="" intLanes="" shape="8145.24,1132.79"/>
    <junction id="3991887966" type="priority" x="7633.45" y="2400.00" incLanes="520407909#0_0 -416819990#1_0 416819990#0_0" intLanes=":3991887966_0_0 :3991887966_1_0" shape="7634.62,2404.69 7636.42,2403.82 7636.20,2402.99 7636.26,2402.64 7636.44,2402.33 7636.72,2402.06 7637.12,2401.83 7634.43,2396.02 7633.57,2396.24 7633.20,2396.17 7632.88,2396.00 7632.60,2395.72 7632.37,2395.32 7630.56,2396.17 7630.75,2397.03 7630.66,2397.42 7630.45,2397.77 7630.12,2398.09 7629.66,2398.38 7632.64,2404.04 7633.45,2403.80 7633.80,2403.86 7634.11,2404.02 7634.39,2404.30">
        <request index="0" response="00" foes="00" cont="0"/>
        <request index="1" response="00" foes="00" cont="0"/>
    </junction>
    <junction id="3991888162" type="dead_end" x="7216.12" y="1454.92" incLanes="" intLanes="" shape="7216.12,1454.92"/>
    <junction id="4175105101" type="priority" x="7428.22" y="2506.31" incLanes="-416819990#0_0" intLanes=":4175105101_0_0" shape="7428.22,2506.31 7429.72,2509.14 7428.22,2506.31">
        <request index="0" response="0" foes="0" cont="0"/>
    </junction>
    <junction id="4177516258" type="priority" x="7694.99" y="2368.31" incLanes="175320504#1_0" intLanes=":4177516258_0_0" shape="7694.99,2368.31 7693.49,2365.48 7694.99,2368.31">
        <request index="0" response="0" foes="0" cont="0"/>
    </junction>
    <junction id="436832680" type="dead_end" x="7589.04" y="2284.35" incLanes="976906314#3_0" intLanes="" shape="7587.58,2285.00 7590.50,2283.70"/>
    <junction id="4676683163" type="dead_end" x="7656.34" y="2447.00" incLanes="" intLanes="" shape="7657.24,2446.56 7655.44,2447.44"/>
    <junction id="4676683164" type="dead_end" x="7683.24" y="2433.48" incLanes="" intLanes="" shape="7684.14,2433.04 7682.34,2433.92"/>
    <junction id="5120772423" type="dead_end" x="7664.54" y="2443.02" incLanes="" intLanes="" shape="7665.98,2442.33 7663.10,2443.71"/>
    <junction id="7856245557" type="priority" x="7660.22" y="2386.70" incLanes="842101756#0_0 -175320504#1_0 175320504#0_0" intLanes=":7856245557_0_0 :7856245557_1_0" shape="7661.38,2391.43 7663.18,2390.56 7662.97,2389.67 7663.05,2389.28 7663.25,2388.92 7663.58,2388.59 7664.03,2388.30 7661.04,2382.65 7660.23,2382.89 7659.88,2382.84 7659.57,2382.67 7659.30,2382.39 7659.06,2382.00 7657.26,2382.87 7657.46,2383.76 7657.37,2384.16 7657.15,2384.54 7656.80,2384.88 7656.32,2385.19 7659.42,2390.80 7660.22,2390.55 7660.56,2390.59 7660.87,2390.76 7661.14,2391.03">
        <request index="0" response="00" foes="00" cont="0"/>
        <request index="1" response="00" foes="00" cont="0"/>
    </junction>
    <junction id="8952652972" type="traffic_light" x="7650.10" y="2392.28" incLanes="-175320504#0_0 976906312#1_0 976906316_0" intLanes=":8952652972_0_0 :8952652972_1_0 :8952652972_9_0 :8952652972_3_0 :8952652972_4_0 :8952652972_5_0 :8952652972_6_0 :8952652972_10_0 :8952652972_11_0" shape="7651.60,2399.52 7654.52,2398.21 7654.01,2395.87 7654.22,2394.84 7654.75,2393.89 7655.59,2393.04 7656.74,2392.27 7653.65,2386.67 7651.51,2387.34 7650.60,2387.21 7649.78,2386.78 7649.06,2386.03 7648.45,2384.98 7645.55,2386.34 7646.11,2388.59 7645.94,2389.55 7645.47,2390.39 7644.71,2391.13 7643.64,2391.75 7646.33,2397.55 7648.53,2397.03 7649.46,2397.21 7650.28,2397.68 7651.00,2398.45">
        <request index="0" response="000000000" foes="010010000" cont="0"/>
        <request index="1" response="000000000" foes="110110000" cont="0"/>
        <request index="2" response="001001000" foes="001001000" cont="1"/>
        <request index="3" response="001000000" foes="001000100" cont="0"/>
        <request index="4" response="011000011" foes="011000011" cont="0"/>
        <request index="5" response="011000010" foes="111000010" cont="0"/>
        <request index="6" response="000000000" foes="000111100" cont="0"/>
        <request index="7" response="000000011" foes="000110011" cont="1"/>
        <request index="8" response="000100010" foes="000100010" cont="1"/>
    </junction>
    <junction id="8952652973" type="dead_end" x="7597.45" y="2279.89" incLanes="" intLanes="" shape="7596.00,2280.57 7598.90,2279.21"/>
    <junction id="9651134449" type="dead_end" x="7671.34" y="2439.61" incLanes="976906315#0_0" intLanes="" shape="7672.80,2438.95 7669.88,2440.27"/>
    <junction id="9651134453" type="dead_end" x="7628.85" y="2390.14" incLanes="520407909#1_0" intLanes="" shape="7628.99,2392.82 7630.81,2391.97 7630.61,2391.14 7630.68,2390.78 7630.86,2390.47 7631.15,2390.19 7631.55,2389.95 7630.68,2388.14 7629.86,2388.36 7629.51,2388.29 7629.20,2388.12 7628.93,2387.84 7628.69,2387.44 7626.88,2388.28"/>
    <junction id="9651134454" type="dead_end" x="7655.64" y="2377.21" incLanes="842101756#1_0 1050204197#2_0" intLanes="" shape="7655.83,2379.90 7657.63,2379.03 7655.45,2374.52 7653.65,2375.39 7653.86,2376.22 7653.80,2376.57 7653.63,2376.88 7653.35,2377.16 7652.95,2377.39 7653.82,2379.20 7654.64,2378.98 7655.00,2379.05 7655.31,2379.22 7655.59,2379.50"/>
    <junction id="9651134455" type="priority" x="7637.39" y="2386.01" incLanes="976906314#2_0 1050204197#0_0" intLanes=":9651134455_0_0" shape="7637.00,2388.98 7639.90,2387.64 7639.69,2386.78 7639.76,2386.41 7639.94,2386.08 7640.23,2385.80 7640.63,2385.55 7639.76,2383.75 7638.94,2383.96 7638.59,2383.90 7638.28,2383.73 7638.01,2383.44 7637.79,2383.04 7634.88,2384.38 7635.09,2385.24 7635.02,2385.61 7634.84,2385.94 7634.55,2386.22 7634.15,2386.47 7635.02,2388.27 7635.84,2388.06 7636.19,2388.12 7636.50,2388.29 7636.77,2388.58">
        <request index="0" response="0" foes="0" cont="0"/>
    </junction>
    <junction id="9651134456" type="priority" x="7645.36" y="2382.16" incLanes="976906312#0_0 1050204197#1_0" intLanes=":9651134456_0_0" shape="7644.98,2385.12 7647.88,2383.76 7647.67,2382.92 7647.73,2382.55 7647.91,2382.23 7648.20,2381.95 7648.60,2381.71 7647.73,2379.91 7646.91,2380.12 7646.56,2380.06 7646.24,2379.88 7645.97,2379.60 7645.74,2379.20 7642.84,2380.56 7643.05,2381.41 7642.99,2381.77 7642.81,2382.09 7642.52,2382.37 7642.12,2382.61 7642.99,2384.41 7643.81,2384.20 7644.16,2384.26 7644.48,2384.44 7644.75,2384.72">
        <request index="0" response="0" foes="0" cont="0"/>
    </junction>
    <junction id="J5" type="dead_end" x="7598.78" y="2258.84" incLanes="842101756#2_0" intLanes="" shape="7597.87,2259.26 7599.68,2258.41"/>