<routes>
    <!-- 차량 유형 정의 -->
    <vType id="car" accel="2.0" decel="4.5" sigma="0.5" length="5" maxSpeed="13.9" color="1,0,0"/>
    <vType id="bus" accel="1.0" decel="3.5" sigma="0.5" length="12" maxSpeed="11.1" color="0,0,1"/>
    <vType id="truck" accel="0.8" decel="3.0" sigma="0.6" length="10" maxSpeed="11.1" color="0.6,0.6,0.6"/>

    <!-- ======================= -->
    <!-- 1️⃣ 천호대로 서 → 동 -->
    <!-- ======================= -->


</routes>
